37
 generated by VMD
 C        -4.962492       -1.562497        0.874383
 C        -3.595712       -1.269255        1.086944
 C        -3.231447        0.075253        1.037138
 C        -4.237079        1.023095        0.783020
 C        -5.589987        0.767707        0.569799
 C        -5.953596       -0.589523        0.620908
 C        -3.666271        2.291393        0.773293
 C        -2.306721        2.171271        1.018046
 C        -1.515161        3.352401        1.051306
 C        -2.246399        4.606184        0.815258
 C        -3.661483        4.646000        0.568721
 C        -4.403821        3.474288        0.543242
 C        -5.823138        3.232421        0.318828
 C        -6.377147        1.971997        0.330873
 H        -7.445971        1.870906        0.154492
 H        -6.472425        4.085492        0.133638
 H        -2.907545       -2.086849        1.274468
 H        -6.984368       -0.906634        0.468408
 H        -4.123651        5.616685        0.404111
 N        -2.041634        0.800207        1.181443
 H        -1.136834        0.398051        1.370690
 O        -5.284840       -2.895689        0.929518
 H        -6.236381       -2.992964        0.770549
 C        -1.501492        5.797679        0.837051
 H        -2.022902        6.737464        0.663745
 C        -0.135114        3.388862        1.285456
 H         0.403213        2.458771        1.460784
 C        -0.122322        5.829643        1.070163
 C         0.583453        4.589715        1.302026
 C         0.620363        7.052752        1.086786
 H         0.087075        7.984616        0.910784
 C         1.970719        7.055512        1.317437
 H         2.521885        7.992521        1.326384
 C         2.666390        5.830694        1.547287
 H         3.737872        5.851416        1.729139
 C         1.992894        4.637473        1.539402
 H         2.522070        3.702944        1.714480
